Circuit: * C:\Users\merli\AppData\Local\LTspice\ECE343Lab5\4-3.asc


Date: Tue Mar 26 11:33:25 2024
Total elapsed time: 0.087 seconds.

tnom = 27
temp = 27
method = trap
totiter = 85
traniter = 0
tranpoints = 0
accept = 0
rejected = 0
matrix size = 3
fillins = 0
solver = Normal
Avg thread counts: 12.0/0.0/12.0/12.0
Matrix Compiler1: 104 bytes object code size
Matrix Compiler2: 163 bytes object code size
