Circuit: * C:\Users\merli\AppData\Local\LTspice\ECE343Lab5\4-5-full.asc

Warning: Multiple definitions of model "2scr375p" Type: BJT
Warning: Multiple definitions of model "bc857b" Type: BJT
Warning: Multiple definitions of model "bc847c" Type: BJT
Warning: Multiple definitions of model "bc847b" Type: BJT
Direct Newton iteration for .op point succeeded.

Date: Tue Apr  9 11:27:13 2024
Total elapsed time: 0.225 seconds.

tnom = 27
temp = 27
method = modified trap
totiter = 23641
traniter = 23615
tranpoints = 8876
accept = 6197
rejected = 2679
matrix size = 41
fillins = 77
solver = Normal
Avg thread counts: 2.1/2.3/1.4/1.2
Matrix Compiler1: 6.69 KB object code size  1.5/1.0/[0.7]
Matrix Compiler2: 4.60 KB object code size  0.5/0.7/[0.3]

