Circuit: * C:\Users\merli\AppData\Local\LTspice\ECE343Lab5\4-5-half.asc

.OP point found by inspection.

Date: Tue Mar 19 15:14:10 2024
Total elapsed time: 0.085 seconds.

tnom = 27
temp = 27
method = modified trap
totiter = 3006
traniter = 3006
tranpoints = 1293
accept = 1203
rejected = 90
matrix size = 6
fillins = 0
solver = Normal
Avg thread counts: 2.3/4.1/4.1/2.3
Matrix Compiler1:      12 opcodes  0.1/[0.1]/0.1
Matrix Compiler2: 394 bytes object code size  0.1/0.2/[0.1]

